Clear

!
! This script is based on a script developed by Tennessee Tech Univ students
! Tyler Patton,  Jon Wood,  and David Woods,  April 2009
!

new circuit.IEEE13Nodeckt__TS
~ basekv=115 pu=1.0001 phases=3 bus1=SourceBus
~ Angle=30                                                         ! advance angle 30 deg so result agree with published angle
~ MVAsc3=20000 MVASC1=21000    ! stiffen the source to approximate inf source



!SUB TRANSFORMER DEFINITION
! Although this data was given,  it does not appear to be used in the test case results
! The published test case starts at 1.0 per unit at Bus 650. To make this happen,  we will change the impedance
! on the transformer to something tiny by dividing by 1000 using the DSS in-line RPN math
New Transformer.Sub Phases=3 Windings=2   XHL=(8 1000 /)
~ wdg=1 bus=SourceBus   conn=delta  kv=115  kva=5000   %r=(.5 1000 /)  XHT=4
~ wdg=2 bus=650             conn=wye    kv=4.16  kva=5000   %r=(.5 1000 /)   XLT=4

! FEEDER 1-PHASE VOLTAGE REGULATORS
! Define low-impedance 2-wdg transformer

New Transformer.Reg1 phases=1 XHL=0.01 kVAs=[1666 1666]
~ Buses=[650.1 RG60.1] kVs=[2.4  2.4] %LoadLoss=0.01
new regcontrol.Reg1  transformer=Reg1 winding=2  vreg=122  band=2  ptratio=20 ctprim=700  R=3   X=9

New Transformer.Reg2 phases=1 XHL=0.01 kVAs=[1666 1666]
~ Buses=[650.2 RG60.2] kVs=[2.4  2.4] %LoadLoss=0.01
new regcontrol.Reg2  transformer=Reg2 winding=2  vreg=122  band=2  ptratio=20 ctprim=700  R=3   X=9

New Transformer.Reg3 phases=1 XHL=0.01 kVAs=[1666 1666]
~ Buses=[650.3 RG60.3] kVs=[2.4  2.4] %LoadLoss=0.01
new regcontrol.Reg3  transformer=Reg3 winding=2  vreg=122  band=2  ptratio=20 ctprim=700  R=3   X=9


!TRANSFORMER DEFINITION
New Transformer.XFM1  Phases=3   Windings=2  XHL=2
~ wdg=1 bus=633       conn=Wye kv=4.16    kva=500    %r=.55     XHT=1
~ wdg=2 bus=634       conn=Wye kv=0.480    kva=500    %r=.55   XLT=1


!LINE CODES
// redirect IEEELineCodes.dss

// these are local matrix line codes
// corrected 9-14-2011
New linecode.mtx601 nphases=3 BaseFreq=60
~ rmatrix = (0.3465 | 0.1560 0.3375 | 0.1580 0.1535 0.3414 )
~ xmatrix = (1.0179 | 0.5017 1.0478 | 0.4236 0.3849 1.0348 )
~ units=mi
New linecode.mtx602 nphases=3 BaseFreq=60
~ rmatrix = (0.7526 | 0.1580 0.7475 | 0.1560 0.1535 0.7436 )
~ xmatrix = (1.1814 | 0.4236 1.1983 | 0.5017 0.3849 1.2112 )
~ units=mi
New linecode.mtx603 nphases=2 BaseFreq=60
~ rmatrix = (1.3238 | 0.2066 1.3294 )
~ xmatrix = (1.3569 | 0.4591 1.3471 )
~ units=mi
New linecode.mtx604 nphases=2 BaseFreq=60
~ rmatrix = (1.3238 | 0.2066 1.3294 )
~ xmatrix = (1.3569 | 0.4591 1.3471 )
~ units=mi
New linecode.mtx605 nphases=1 BaseFreq=60
~ rmatrix = (1.3292 )
~ xmatrix = (1.3475 )
~ units=mi

// /*********** Original 606 Linecode *********************

// You have to use this to match Kersting's results:

// New linecode.mtx606 nphases=3 BaseFreq=60
// ~ rmatrix = (0.7982 | 0.3192 0.7891 | 0.2849 0.3192 0.7982 )
// ~ xmatrix = (0.4463 | 0.0328 0.4041 | -0.0143 0.0328 0.4463 )
// ~ Cmatrix = [257 | 0 257 | 0 0 257]  ! <--- This is too low by 1.5
// ~ units=mi

// Corrected mtx606  Feb 3 2016 by RDugan

// The new LineCode.606 is computed using the following CN cable definition and
// LineGeometry definition:

// New CNDATA.250_1/3 k=13 DiaStrand=0.064 Rstrand=2.816666667 epsR=2.3
// ~ InsLayer=0.220 DiaIns=1.06 DiaCable=1.16 Rac=0.076705 GMRac=0.20568 diam=0.573
// ~ Runits=kft Radunits=in GMRunits=in

// New LineGeometry.606 nconds=3 nphases=3 units=ft
// ~ cond=1 cncable=250_1/3 x=-0.5 h= -4
// ~ cond=2 cncable=250_1/3 x=0   h= -4
// ~ cond=3 cncable=250_1/3 x=0.5  h= -4

// ****End Comment******/

New Linecode.mtx606 nphases=3  Units=mi
~ Rmatrix=[0.791721  |0.318476  0.781649  |0.28345  0.318476  0.791721  ]
~ Xmatrix=[0.438352  |0.0276838  0.396697  |-0.0184204  0.0276838  0.438352  ]
~ Cmatrix=[383.948  |0  383.948  |0  0  383.948  ]
New linecode.mtx607 nphases=1 BaseFreq=60
~ rmatrix = (1.3425 )
~ xmatrix = (0.5124 )
~ cmatrix = [236]
~ units=mi

New Loadshape.residencial npts=288 mInterval=5 Mult =(0.49765086, 0.481443888, 0.465270481, 0.449305916, 0.433725472, 0.418689961, 0.404118467, 0.389959567, 0.375874703, 0.362005935, 0.350229148, 0.34034662, 0.331476473, 0.323394538, 0.315876649, 0.308674109, 0.301705669, 0.295057404, 0.288816743, 0.283071115, 0.277907948, 0.27339558, 0.269401587, 0.265790971, 0.26245045, 0.259266746, 0.256126578, 0.252916666, 0.249423502, 0.245302483, 0.240939543, 0.23679772, 0.233340055, 0.231029584, 0.230325098, 0.231152922, 0.232892143, 0.234994853, 0.236913146, 0.238099114, 0.237939889, 0.236071786, 0.233137286, 0.229867531, 0.226993662, 0.225246822, 0.225077829, 0.225447231, 0.226110666, 0.22700441, 0.228064736, 0.229227918, 0.230436892, 0.232357098, 0.235090603, 0.23810607, 0.24087216, 0.242857538, 0.243537851, 0.243537851, 0.243537851, 0.243537851, 0.243537851, 0.245308012, 0.251332431, 0.259458093, 0.267846666, 0.278844831, 0.290382997, 0.299122318, 0.305459957, 0.310823514, 0.316230792, 0.322699596, 0.331367161, 0.342618284, 0.355164868, 0.367654752, 0.380046903, 0.392828805, 0.406187992, 0.421213821, 0.439525943, 0.441832267, 0.441438083, 0.440841318, 0.440188202, 0.439624963, 0.439297829, 0.439516548, 0.440896804, 0.443246403, 0.446295616, 0.449774713, 0.453413966, 0.456943647, 0.460094024, 0.462959216, 0.465933508, 0.468923758, 0.471830814, 0.474555529, 0.477005057, 0.479223151, 0.481289962, 0.483264947, 0.485207565, 0.487175496, 0.489122868, 0.491022804, 0.492900307, 0.494780381, 0.496688028, 0.498648253, 0.500713811, 0.503283357, 0.506181233, 0.509018001, 0.511404225, 0.512950469, 0.513325051, 0.513325051, 0.513325051, 0.513325051, 0.513325051, 0.513325051, 0.513325051, 0.513325051, 0.513325051, 0.513325051, 0.513325051, 0.513325051, 0.513325051, 0.513325051, 0.512981751, 0.510869198, 0.507611831, 0.504122828, 0.501315368, 0.500102631, 0.504530666, 0.51342305, 0.518600517, 0.51781087, 0.51592995, 0.514070509, 0.513406162, 0.522477007, 0.534891609, 0.536470556, 0.532179923, 0.525666915, 0.51902138, 0.514333166, 0.513325051, 0.513325051, 0.513325051, 0.513325051, 0.513325051, 0.513325051, 0.512172471, 0.508386924, 0.503867382, 0.500620098, 0.50039007, 0.502218563, 0.504406408, 0.50538703, 0.504307555, 0.501711254, 0.498215147, 0.494436255, 0.490991599, 0.48831212, 0.485621294, 0.482915065, 0.480401118, 0.478287137, 0.476780808, 0.475992596, 0.475382932, 0.47484407, 0.474389276, 0.474031821, 0.473784971, 0.473661997, 0.473807856, 0.4747311, 0.476378134, 0.478630819, 0.481371017, 0.484480589, 0.487841398, 0.491335304, 0.494844213, 0.498721805, 0.503325304, 0.508568479, 0.514365097, 0.520628928, 0.527273738, 0.534213298, 0.541361374, 0.54885336, 0.557007167, 0.56578489, 0.575142262, 0.585035017, 0.595418887, 0.606249606, 0.617535051, 0.62952215, 0.642294088, 0.655904025, 0.670405121, 0.685850533, 0.702559733, 0.721530022, 0.742052379, 0.763200566, 0.785133573, 0.809554734, 0.834303225, 0.856959262, 0.875103062, 0.889039055, 0.901278151, 0.91214966, 0.921979101, 0.931091989, 0.939885688, 0.948996936, 0.95770687, 0.965021773, 0.969947928, 0.972189963, 0.973644803, 0.974695941, 0.975562683, 0.976464336, 0.977620208, 0.979279415, 0.982266061, 0.986357769, 0.990862822, 0.9950895, 0.998346085, 0.999940858, 0.999875966, 0.999376802, 0.998534545, 0.997391381, 0.995989494, 0.994321438, 0.990886204, 0.985284476, 0.977953195, 0.969329301, 0.959838488, 0.945755675, 0.927889353, 0.912144072, 0.899739776, 0.888448848, 0.87815971, 0.868692636, 0.858286753, 0.849484707, 0.84660451, 0.847078065, 0.847941128, 0.848792446, 0.84923077, 0.838824066, 0.816806628, 0.802285964, 0.790153754, 0.774432234, 0.757735354, 0.75460235, 0.753031526, 0.750926254, 0.745131641, 0.729433615, 0.711202526, 0.697216492, 0.684041582, 0.667061999) Action= Normalize

!LOAD DEFINITIONS
New Load.671 Bus1=671.1.2.3  Phases=3 Conn=Delta Model=1 kV=4.16   kW=1155 kvar=660 daily=residencial
New Load.634a Bus1=634.1     Phases=1 Conn=Wye  Model=1 kV=0.277  kW=160   kvar=110 daily=residencial
New Load.634b Bus1=634.2     Phases=1 Conn=Wye  Model=1 kV=0.277  kW=120   kvar=90 daily=residencial
New Load.634c Bus1=634.3     Phases=1 Conn=Wye  Model=1 kV=0.277  kW=120   kvar=90 daily=residencial
New Load.645 Bus1=645.2       Phases=1 Conn=Wye  Model=1 kV=2.4      kW=170   kvar=125 daily=residencial
New Load.646 Bus1=646.2.3    Phases=1 Conn=Delta Model=2 kV=4.16    kW=230   kvar=132 daily=residencial
New Load.692 Bus1=692.3.1    Phases=1 Conn=Delta Model=5 kV=4.16    kW=170   kvar=151 daily=residencial
New Load.675a Bus1=675.1    Phases=1 Conn=Wye  Model=1 kV=2.4  kW=485   kvar=190 daily=residencial
New Load.675b Bus1=675.2    Phases=1 Conn=Wye  Model=1 kV=2.4  kW=68   kvar=60 daily=residencial
New Load.675c Bus1=675.3    Phases=1 Conn=Wye  Model=1 kV=2.4  kW=290   kvar=212 daily=residencial
New Load.611 Bus1=611.3      Phases=1 Conn=Wye  Model=5 kV=2.4  kW=170   kvar=80 daily=residencial
New Load.652 Bus1=652.1      Phases=1 Conn=Wye  Model=2 kV=2.4  kW=128   kvar=86 daily=residencial
New Load.670a Bus1=670.1    Phases=1 Conn=Wye  Model=1 kV=2.4  kW=17    kvar=10 daily=residencial
New Load.670b Bus1=670.2    Phases=1 Conn=Wye  Model=1 kV=2.4  kW=66    kvar=38 daily=residencial
New Load.670c Bus1=670.3    Phases=1 Conn=Wye  Model=1 kV=2.4  kW=117  kvar=68 daily=residencial

!CAPACITOR DEFINITIONS
New Capacitor.Cap1 Bus1=675 phases=3 kVAR=600 kV=4.16
New Capacitor.Cap2 Bus1=611.3 phases=1 kVAR=100 kV=2.4

!Bus 670 is the concentrated point load of the distributed load on line 632 to 671 located at 1/3 the distance from node 632

!LINE DEFINITIONS
New Line.650632    Phases=3 Bus1=RG60.1.2.3   Bus2=632.1.2.3  LineCode=mtx601 Length=2000 units=ft
New Line.632670    Phases=3 Bus1=632.1.2.3    Bus2=670.1.2.3  LineCode=mtx601 Length=667  units=ft
New Line.670671    Phases=3 Bus1=670.1.2.3    Bus2=671.1.2.3  LineCode=mtx601 Length=1333 units=ft
New Line.671680    Phases=3 Bus1=671.1.2.3    Bus2=680.1.2.3  LineCode=mtx601 Length=1000 units=ft
New Line.632633    Phases=3 Bus1=632.1.2.3    Bus2=633.1.2.3  LineCode=mtx602 Length=500  units=ft
New Line.632645    Phases=2 Bus1=632.2.3      Bus2=645.2.3    LineCode=mtx603 Length=500  units=ft
New Line.645646    Phases=2 Bus1=645.2.3      Bus2=646.2.3    LineCode=mtx603 Length=300  units=ft
New Line.692675    Phases=3 Bus1=692.1.2.3    Bus2=675.1.2.3  LineCode=mtx606 Length=500  units=ft
New Line.671684    Phases=2 Bus1=671.1.3      Bus2=684.1.3    LineCode=mtx604 Length=300  units=ft
New Line.684611    Phases=1 Bus1=684.3        Bus2=611.3      LineCode=mtx605 Length=300  units=ft
New Line.684652    Phases=1 Bus1=684.1        Bus2=652.1      LineCode=mtx607 Length=800  units=ft


!SWITCH DEFINITIONS
New Line.671692    Phases=3 Bus1=671   Bus2=692  Switch=y  r1=1e-4 r0=1e-4 x1=0.000 x0=0.000 c1=0.000 c0=0.000

// Set Voltagebases=[115,  4.16,  .48]
// calcv
// Solve
// BusCoords IEEE13Node_BusXY.csv

!---------------------------------------------------------------------------------------------------------------------------------------------------
!----------------Show some Results -----------------------------------------------------------------------------------------------------------------
!---------------------------------------------------------------------------------------------------------------------------------------------------


// Show Voltages LN Nodes
// Show Currents Elem
// Show Powers kVA Elem
// Show Losses
// Show Taps

!---------------------------------------------------------------------------------------------------------------------------------------------------
!---------------------------------------------------------------------------------------------------------------------------------------------------
! Alternate Solution Script
! To force the taps to be same as published results,  set the transformer taps manually and disable the controls
!---------------------------------------------------------------------------------------------------------------------------------------------------
// /*
// Transformer.Reg1.Taps=[1.0 1.0625]
// Transformer.Reg2.Taps=[1.0 1.0500]
// Transformer.Reg3.Taps=[1.0 1.06875]
// Set Controlmode=OFF

// Solve
// */